* PSpice Model Editor - Version 17.2.0
*$
.model Mbreakp PMOS VTO=-1.32 Kp=635.2u
*$
.model Mbreakn NMOS VTO=.91 Kp=685.6u
*$
